<?xml version="1.0" encoding="UTF-8"?>


<!-- generated on 2024-04-06 20:49:54 by Eclipse SUMO sumo Version 1.19.0
<configuration xmlns:xsi="http://www.w3.org/2001/XMLSchema-instance" xsi:noNamespaceSchemaLocation="http://sumo.dlr.de/xsd/sumoConfiguration.xsd">

    <input>
        <net-file value="F:/SUMO/OptimalEmission-SUMO-ReinforcementLearning/data/grid.net.xml"/>
        <route-files value="F:/SUMO/OptimalEmission-SUMO-ReinforcementLearning/data/grid.rou.xml"/>
        <additional-files value="F:/SUMO/OptimalEmission-SUMO-ReinforcementLearning/data/grid.det.xml"/>
    </input>

    <time>
        <begin value="0"/>
        <end value="500000"/>
    </time>

    <processing>
        <time-to-teleport value="-1"/>
    </processing>

    <traci_server>
        <remote-port value="50815"/>
    </traci_server>

</configuration>
